
     RDKit          3D

 27 29  0  0  0  0  0  0  0  0999 V2000
   20.7003   41.3356   56.2639 O   0  0  0  0  0  0  0  0  0  0  0  0
   20.4033   42.4291   55.7749 C   0  0  0  0  0  0  0  0  0  0  0  0
   20.2512   42.7194   54.4321 N   0  0  0  0  0  0  0  0  0  0  0  0
   19.6640   41.9446   53.4315 C   0  0  0  0  0  0  0  0  0  0  0  0
   18.3390   42.0795   53.0139 C   0  0  0  0  0  0  0  0  0  0  0  0
   17.7645   41.1787   52.0917 C   0  0  0  0  0  0  0  0  0  0  0  0
   18.6032   40.2836   51.3849 C   0  0  0  0  0  0  0  0  0  0  0  0
   18.2976   39.7366   50.1473 O   0  0  0  0  0  0  0  0  0  0  0  0
   17.4608   38.5570   50.1596 C   0  0  0  0  0  0  0  0  0  0  0  0
   16.7374   38.5086   49.0494 F   0  0  0  0  0  0  0  0  0  0  0  0
   16.6641   38.7130   51.2096 F   0  0  0  0  0  0  0  0  0  0  0  0
   18.2200   37.4351   50.2757 F   0  0  0  0  0  0  0  0  0  0  0  0
   19.9656   40.1733   51.7769 C   0  0  0  0  0  0  0  0  0  0  0  0
   20.4313   40.9614   52.8421 C   0  0  0  0  0  0  0  0  0  0  0  0
   20.6439   43.6100   56.6198 C   0  0  0  0  0  0  0  0  0  0  0  0
   19.6170   44.1198   57.4808 C   0  0  0  0  0  0  0  0  0  0  0  0
   19.8223   45.3019   58.2098 C   0  0  0  0  0  0  0  0  0  0  0  0
   21.0492   45.9330   58.1042 C   0  0  0  0  0  0  0  0  0  0  0  0
   22.1722   45.2775   57.6284 C   0  0  0  0  0  0  0  0  0  0  0  0
   23.2781   44.9721   58.6122 C   0  0  0  0  0  0  0  0  0  0  0  0
   24.4224   44.2642   57.9945 N   0  0  0  0  0  0  0  0  0  0  0  0
   24.8290   43.0572   58.7986 C   0  0  0  0  0  0  0  0  0  0  0  0
   26.3677   42.8157   58.7445 C   0  0  0  0  0  0  0  0  0  0  0  0
   27.1008   43.8767   59.2740 O   0  0  0  0  0  0  0  0  0  0  0  0
   26.4643   45.1736   59.0703 C   0  0  0  0  0  0  0  0  0  0  0  0
   25.5539   45.1604   57.8489 C   0  0  0  0  0  0  0  0  0  0  0  0
   21.9049   44.2753   56.6036 C   0  0  0  0  0  0  0  0  0  0  0  0
  1  2  2  0
  2  3  1  0
  3  4  1  0
  4  5  2  0
  5  6  1  0
  6  7  2  0
  7  8  1  0
  8  9  1  0
  9 10  1  0
  9 11  1  0
  9 12  1  0
  7 13  1  0
 13 14  2  0
  2 15  1  0
 15 16  2  0
 16 17  1  0
 17 18  2  0
 18 19  1  0
 19 20  1  0
 20 21  1  0
 21 22  1  0
 22 23  1  0
 23 24  1  0
 24 25  1  0
 25 26  1  0
 19 27  2  0
 14  4  1  0
 27 15  1  0
 26 21  1  0
M  END
$$$$
