
     RDKit          3D

 27 29  0  0  0  0  0  0  0  0999 V2000
    2.5936   -1.7383    1.7270 O   0  0  0  0  0  0  0  0  0  0  0  0
    1.6751   -1.2220    1.1021 C   0  0  0  0  0  0  0  0  0  0  0  0
    1.7852   -0.3319    0.0484 N   0  0  0  0  0  0  0  0  0  0  0  0
    2.9666    0.2270   -0.4804 C   0  0  0  0  0  0  0  0  0  0  0  0
    4.2386    0.0156    0.0511 C   0  0  0  0  0  0  0  0  0  0  0  0
    5.3686    0.6117   -0.5288 C   0  0  0  0  0  0  0  0  0  0  0  0
    5.2383    1.4304   -1.6487 C   0  0  0  0  0  0  0  0  0  0  0  0
    6.2443    2.0708   -2.3117 O   0  0  0  0  0  0  0  0  0  0  0  0
    7.5663    1.8988   -1.8307 C   0  0  0  0  0  0  0  0  0  0  0  0
    7.6904    2.3581   -0.5672 F   0  0  0  0  0  0  0  0  0  0  0  0
    8.4068    2.6077   -2.6175 F   0  0  0  0  0  0  0  0  0  0  0  0
    7.9405    0.6028   -1.8811 F   0  0  0  0  0  0  0  0  0  0  0  0
    3.9650    1.6462   -2.1798 C   0  0  0  0  0  0  0  0  0  0  0  0
    2.8386    1.0521   -1.6019 C   0  0  0  0  0  0  0  0  0  0  0  0
    0.2777   -1.6010    1.4578 C   0  0  0  0  0  0  0  0  0  0  0  0
    0.0310   -2.9028    1.9075 C   0  0  0  0  0  0  0  0  0  0  0  0
   -1.2661   -3.2957    2.2379 C   0  0  0  0  0  0  0  0  0  0  0  0
   -2.3214   -2.3884    2.1285 C   0  0  0  0  0  0  0  0  0  0  0  0
   -2.0890   -1.0748    1.6972 C   0  0  0  0  0  0  0  0  0  0  0  0
   -3.2258   -0.0791    1.5956 C   0  0  0  0  0  0  0  0  0  0  0  0
   -3.3927    0.4575    0.2349 N   0  0  0  0  0  0  0  0  0  0  0  0
   -4.3458    1.5895    0.2118 C   0  0  0  0  0  0  0  0  0  0  0  0
   -5.7607    1.1932   -0.2374 C   0  0  0  0  0  0  0  0  0  0  0  0
   -5.7953    0.6270   -1.5539 O   0  0  0  0  0  0  0  0  0  0  0  0
   -4.5684   -0.0174   -1.9230 C   0  0  0  0  0  0  0  0  0  0  0  0
   -3.8215   -0.5990   -0.7136 C   0  0  0  0  0  0  0  0  0  0  0  0
   -0.7788   -0.6850    1.3726 C   0  0  0  0  0  0  0  0  0  0  0  0
  1  2  2  0
  2  3  1  0
  3  4  1  0
  4  5  2  0
  5  6  1  0
  6  7  2  0
  7  8  1  0
  8  9  1  0
  9 10  1  0
  9 11  1  0
  9 12  1  0
  7 13  1  0
 13 14  2  0
  2 15  1  0
 15 16  2  0
 16 17  1  0
 17 18  2  0
 18 19  1  0
 19 20  1  0
 20 21  1  0
 21 22  1  0
 22 23  1  0
 23 24  1  0
 24 25  1  0
 25 26  1  0
 19 27  2  0
 14  4  1  0
 27 15  1  0
 26 21  1  0
M  END
$$$$
